1007
  -OEChem-07272517473D

 23 22  0     1  0  0  0  0  0999 V2000
   -2.8941   -0.1065    0.1266 P   0  0  0  0  0  0  0  0  0  0  0  0
   -1.5487    0.7275   -0.1949 O   0  0  0  0  0  0  0  0  0  0  0  0
    0.8908    1.9645    0.4113 O   0  0  0  0  0  0  0  0  0  0  0  0
    3.2885    0.2899    1.3834 O   0  0  0  0  0  0  0  0  0  0  0  0
    2.3171   -1.6439    0.7102 O   0  0  0  0  0  0  0  0  0  0  0  0
   -2.5091   -0.9689    1.4393 O   0  0  0  0  0  0  0  0  0  0  0  0
   -2.9157   -1.2132   -1.0524 O   0  0  0  0  0  0  0  0  0  0  0  0
   -4.1422    0.7186    0.2443 O   0  0  0  0  0  0  0  0  0  0  0  0
    2.2302   -0.6079   -1.8781 N   0  0  0  0  0  0  0  0  0  0  0  0
    0.8188    0.9804   -0.6236 C   0  0  1  0  0  0  0  0  0  0  0  0
    2.2011    0.3183   -0.7449 C   0  0  1  0  0  0  0  0  0  0  0  0
   -0.3243    0.0097   -0.3207 C   0  0  0  0  0  0  0  0  0  0  0  0
    2.5877   -0.4686    0.4996 C   0  0  0  0  0  0  0  0  0  0  0  0
    0.5790    1.5267   -1.5445 H   0  0  0  0  0  0  0  0  0  0  0  0
    2.9708    1.0826   -0.9091 H   0  0  0  0  0  0  0  0  0  0  0  0
   -0.1447   -0.5014    0.6296 H   0  0  0  0  0  0  0  0  0  0  0  0
   -0.4209   -0.7347   -1.1162 H   0  0  0  0  0  0  0  0  0  0  0  0
    3.1794   -0.9548   -2.0121 H   0  0  0  0  0  0  0  0  0  0  0  0
    1.9873   -0.1089   -2.7331 H   0  0  0  0  0  0  0  0  0  0  0  0
    1.5814    2.6026    0.1631 H   0  0  0  0  0  0  0  0  0  0  0  0
    3.5367   -0.2187    2.1846 H   0  0  0  0  0  0  0  0  0  0  0  0
   -3.2003   -1.5196    1.8649 H   0  0  0  0  0  0  0  0  0  0  0  0
   -3.6965   -1.8006   -1.1377 H   0  0  0  0  0  0  0  0  0  0  0  0
  1  2  1  0  0  0  0
  1  6  1  0  0  0  0
  1  7  1  0  0  0  0
  1  8  2  0  0  0  0
  2 12  1  0  0  0  0
  3 10  1  0  0  0  0
  3 20  1  0  0  0  0
  4 13  1  0  0  0  0
  4 21  1  0  0  0  0
  5 13  2  0  0  0  0
  6 22  1  0  0  0  0
  7 23  1  0  0  0  0
  9 11  1  0  0  0  0
  9 18  1  0  0  0  0
  9 19  1  0  0  0  0
 10 11  1  0  0  0  0
 10 12  1  0  0  0  0
 10 14  1  0  0  0  0
 11 13  1  0  0  0  0
 11 15  1  0  0  0  0
 12 16  1  0  0  0  0
 12 17  1  0  0  0  0
M  END
> <PUBCHEM_COMPOUND_CID>
1007

> <PUBCHEM_CONFORMER_RMSD>
0.6

> <PUBCHEM_CONFORMER_DIVERSEORDER>
34
134
14
138
110
99
102
90
135
16
133
62
2
51
144
124
5
103
127
27
85
125
79
112
140
116
44
96
139
18
40
101
137
58
65
104
86
141
61
60
54
30
78
128
113
91
59
4
7
23
41
29
87
25
38
69
100
39
28
53
108
80
129
83
84
111
77
47
130
82
76
120
114
11
105
81
93
142
19
17
119
21
74
118
37
70
35
122
64
45
71
15
123
132
49
31
107
131
95
94
121
57
26
9
20
32
46
143
22
106
136
24
115
43
73
126
92
52
12
89
48
33
67
42
10
55
1
36
6
8
88
117
13
66
63
97
72
68
3
75
109
50
56
98

> <PUBCHEM_MMFF94_PARTIAL_CHARGES>
19
1 1.51
10 0.28
11 0.33
12 0.28
13 0.66
18 0.36
19 0.36
2 -0.55
20 0.4
21 0.5
22 0.5
23 0.5
3 -0.68
4 -0.65
5 -0.57
6 -0.77
7 -0.77
8 -0.7
9 -0.99

> <PUBCHEM_EFFECTIVE_ROTOR_COUNT>
5

> <PUBCHEM_PHARMACOPHORE_FEATURES>
11
1 3 acceptor
1 3 donor
1 4 acceptor
1 5 acceptor
1 6 acceptor
1 7 acceptor
1 8 acceptor
1 9 cation
1 9 donor
3 4 5 13 anion
4 1 6 7 8 anion

> <PUBCHEM_HEAVY_ATOM_COUNT>
13

> <PUBCHEM_ATOM_DEF_STEREO_COUNT>
0

> <PUBCHEM_ATOM_UDEF_STEREO_COUNT>
2

> <PUBCHEM_BOND_DEF_STEREO_COUNT>
0

> <PUBCHEM_BOND_UDEF_STEREO_COUNT>
0

> <PUBCHEM_ISOTOPIC_ATOM_COUNT>
0

> <PUBCHEM_COMPONENT_COUNT>
1

> <PUBCHEM_CACTVS_TAUTO_COUNT>
1

> <PUBCHEM_CONFORMER_ID>
000003EF00000022

> <PUBCHEM_MMFF94_ENERGY>
-16.3485

> <PUBCHEM_FEATURE_SELFOVERLAP>
55.919

> <PUBCHEM_SHAPE_FINGERPRINT>
10130415 120 18040715848758662745
12932764 1 18408610287850064621
14252887 29 18202292393874713398
14350558 41 17749391421253547218
20201158 50 17821726117770166594
20279233 1 17846781797491797751
20339313 130 16805328768639545493
20671657 53 16298947533627611762
20711985 344 18051153400966956420
21501925 9 18129933598280921853
21524375 3 17407676684785455432
21730867 7 16630529526936929446
230 275 14836405860609012008
3248919 1 17675923213800059287
81228 2 18195820560970439945

> <PUBCHEM_SHAPE_MULTIPOLES>
225.32
6.29
1.37
1.3
4.02
0.13
-0.35
1.17
0.67
-0.3
0.3
-0.57
0.07
-0.2

> <PUBCHEM_SHAPE_SELFOVERLAP>
419.102

> <PUBCHEM_SHAPE_VOLUME>
141.4

> <PUBCHEM_COORDINATE_TYPE>
2
5
10

$$$$
