5000
  -OEChem-07272517473D

 26 28  0     1  0  0  0  0  0999 V2000
   -2.8016   -2.6643    0.2560 Cl  0  0  0  0  0  0  0  0  0  0  0  0
    4.4931    0.3289    0.2177 O   0  0  0  0  0  0  0  0  0  0  0  0
    1.1201   -0.4292    0.0958 N   0  0  0  0  0  0  0  0  0  0  0  0
    0.0436    1.6591   -0.0592 N   0  0  0  0  0  0  0  0  0  0  0  0
    2.4322    1.4026    0.0605 N   0  0  0  0  0  0  0  0  0  0  0  0
    2.4463   -0.9974    0.2227 C   0  0  2  0  0  0  0  0  0  0  0  0
   -0.0918   -1.2085    0.2343 C   0  0  0  0  0  0  0  0  0  0  0  0
    1.2061    0.9401    0.0282 C   0  0  0  0  0  0  0  0  0  0  0  0
   -1.3284   -0.3531    0.0787 C   0  0  0  0  0  0  0  0  0  0  0  0
   -1.2217    1.0464   -0.0506 C   0  0  0  0  0  0  0  0  0  0  0  0
    3.2699    0.2975    0.1708 C   0  0  0  0  0  0  0  0  0  0  0  0
    2.7938   -1.9106   -0.9355 C   0  0  0  0  0  0  0  0  0  0  0  0
   -2.5936   -0.9552    0.0839 C   0  0  0  0  0  0  0  0  0  0  0  0
   -2.3847    1.8158   -0.1804 C   0  0  0  0  0  0  0  0  0  0  0  0
   -3.7437   -0.1776   -0.0452 C   0  0  0  0  0  0  0  0  0  0  0  0
   -3.6395    1.2054   -0.1775 C   0  0  0  0  0  0  0  0  0  0  0  0
    2.5840   -1.4759    1.1973 H   0  0  0  0  0  0  0  0  0  0  0  0
   -0.1009   -1.6776    1.2249 H   0  0  0  0  0  0  0  0  0  0  0  0
   -0.0947   -1.9917   -0.5315 H   0  0  0  0  0  0  0  0  0  0  0  0
    0.0715    2.6704   -0.1217 H   0  0  0  0  0  0  0  0  0  0  0  0
    3.8388   -2.2326   -0.8750 H   0  0  0  0  0  0  0  0  0  0  0  0
    2.1634   -2.8056   -0.9350 H   0  0  0  0  0  0  0  0  0  0  0  0
    2.6595   -1.4075   -1.9000 H   0  0  0  0  0  0  0  0  0  0  0  0
   -2.3211    2.8963   -0.2847 H   0  0  0  0  0  0  0  0  0  0  0  0
   -4.7308   -0.6334   -0.0428 H   0  0  0  0  0  0  0  0  0  0  0  0
   -4.5362    1.8102   -0.2779 H   0  0  0  0  0  0  0  0  0  0  0  0
  1 13  1  0  0  0  0
  2 11  2  0  0  0  0
  3  6  1  0  0  0  0
  3  7  1  0  0  0  0
  3  8  1  0  0  0  0
  4  8  1  0  0  0  0
  4 10  1  0  0  0  0
  4 20  1  0  0  0  0
  5  8  2  0  0  0  0
  5 11  1  0  0  0  0
  6 11  1  0  0  0  0
  6 12  1  0  0  0  0
  6 17  1  0  0  0  0
  7  9  1  0  0  0  0
  7 18  1  0  0  0  0
  7 19  1  0  0  0  0
  9 10  2  0  0  0  0
  9 13  1  0  0  0  0
 10 14  1  0  0  0  0
 12 21  1  0  0  0  0
 12 22  1  0  0  0  0
 12 23  1  0  0  0  0
 13 15  2  0  0  0  0
 14 16  2  0  0  0  0
 14 24  1  0  0  0  0
 15 16  1  0  0  0  0
 15 25  1  0  0  0  0
 16 26  1  0  0  0  0
M  END
> <PUBCHEM_COMPOUND_CID>
5000

> <PUBCHEM_CONFORMER_RMSD>
0.4

> <PUBCHEM_CONFORMER_DIVERSEORDER>
2
1

> <PUBCHEM_MMFF94_PARTIAL_CHARGES>
19
1 -0.18
10 0.1
11 0.72
13 0.18
14 -0.15
15 -0.15
16 -0.15
2 -0.57
20 0.4
24 0.15
25 0.15
26 0.15
3 -0.79
4 -0.55
5 -0.66
6 0.43
7 0.51
8 0.55
9 -0.14

> <PUBCHEM_EFFECTIVE_ROTOR_COUNT>
0.6

> <PUBCHEM_PHARMACOPHORE_FEATURES>
6
1 2 acceptor
1 4 donor
1 5 donor
5 3 5 6 8 11 rings
6 3 4 7 8 9 10 rings
6 9 10 13 14 15 16 rings

> <PUBCHEM_HEAVY_ATOM_COUNT>
16

> <PUBCHEM_ATOM_DEF_STEREO_COUNT>
0

> <PUBCHEM_ATOM_UDEF_STEREO_COUNT>
1

> <PUBCHEM_BOND_DEF_STEREO_COUNT>
0

> <PUBCHEM_BOND_UDEF_STEREO_COUNT>
0

> <PUBCHEM_ISOTOPIC_ATOM_COUNT>
0

> <PUBCHEM_COMPONENT_COUNT>
1

> <PUBCHEM_CACTVS_TAUTO_COUNT>
3

> <PUBCHEM_CONFORMER_ID>
0000138800000002

> <PUBCHEM_MMFF94_ENERGY>
46.5596

> <PUBCHEM_FEATURE_SELFOVERLAP>
30.606

> <PUBCHEM_SHAPE_FINGERPRINT>
10608611 8 18411415115857868160
10616163 171 18411702131331984150
10922523 26 18412265021223980447
10967382 1 18410010996722795691
11132069 177 18409444782457079449
11471102 20 18339919325106537004
12032990 46 18410580552383293547
12500047 106 18410003317474420133
13214271 11 18341324582623882982
13221675 6 18408603639124522211
13296908 3 18411984632805579654
13380535 76 18411134718970559855
14144814 61 18409448051011542329
14325111 11 18410291384941054545
14790565 3 15461578960143300376
15196674 1 18410573942444442755
15219456 202 18343023250726741974
15375358 24 18413384319787187982
15442244 35 18194681467081630978
15536298 74 18343019943818084814
16945 1 18264203604454082513
17834074 16 18411421700058388271
18186145 218 18263081011582445637
19107657 46 18411136952300786895
200 152 17775278370083210517
20201158 50 18412262830811797290
20279233 1 18413390921162555886
20510252 161 18270962328442925569
20645477 56 18408604738821110541
20645477 70 17917430861247690382
20871998 184 18272091651501850623
21267235 1 18409175432315671539
21501502 16 18263085568505920749
221490 88 18338243759928331114
2334 1 18410012164837758227
23402539 116 18334847355635752662
23402655 69 18269828744781503085
23463225 33 18335419049757499212
23557571 272 18342466966504606774
23559900 14 18341048511359751630
2748010 2 18410293609754966135
3312278 4 18411983572006550049
335352 9 18050285873264833871
34934 24 18408877425846106931
3545911 37 18412265025529536032
5104073 3 18411135809892065650
69090 78 18412539891026266927
7364860 26 18268148841153772872
8809292 202 18261675973277321443
9709674 26 18413109458970786823

> <PUBCHEM_SHAPE_MULTIPOLES>
310.33
7.03
2.29
0.68
2.27
0.84
0.05
0.26
0.1
-1.17
0.1
0.12
0.14
0.59

> <PUBCHEM_SHAPE_SELFOVERLAP>
673.131

> <PUBCHEM_SHAPE_VOLUME>
171.4

> <PUBCHEM_COORDINATE_TYPE>
2
5
10

$$$$
