5013
  -OEChem-07272517473D

 34 36  0     0  0  0  0  0  0999 V2000
   -1.5252    0.1525   -0.0307 N   0  0  0  0  0  0  0  0  0  0  0  0
   -4.3127   -0.4094    0.2406 N   0  0  0  0  0  0  0  0  0  0  0  0
    0.7015   -0.7170    0.1427 N   0  0  0  0  0  0  0  0  0  0  0  0
   -2.0532   -1.1601   -0.4234 C   0  0  0  0  0  0  0  0  0  0  0  0
   -2.3332    0.8965    0.9404 C   0  0  0  0  0  0  0  0  0  0  0  0
   -3.5266   -1.0487   -0.8220 C   0  0  0  0  0  0  0  0  0  0  0  0
   -3.7981    0.9409    0.4988 C   0  0  0  0  0  0  0  0  0  0  0  0
   -0.1394    0.3428   -0.0713 C   0  0  0  0  0  0  0  0  0  0  0  0
   -5.7269   -0.3579   -0.1282 C   0  0  0  0  0  0  0  0  0  0  0  0
    0.3509    1.6237   -0.3335 C   0  0  0  0  0  0  0  0  0  0  0  0
    2.0335   -0.5254    0.1003 C   0  0  0  0  0  0  0  0  0  0  0  0
    2.5954    0.7422   -0.1594 C   0  0  0  0  0  0  0  0  0  0  0  0
    1.7239    1.8181   -0.3764 C   0  0  0  0  0  0  0  0  0  0  0  0
    2.8997   -1.5938    0.3157 C   0  0  0  0  0  0  0  0  0  0  0  0
    3.9905    0.9062   -0.1961 C   0  0  0  0  0  0  0  0  0  0  0  0
    4.2868   -1.4311    0.2793 C   0  0  0  0  0  0  0  0  0  0  0  0
    4.8332   -0.1797    0.0232 C   0  0  0  0  0  0  0  0  0  0  0  0
   -1.9379   -1.8668    0.4084 H   0  0  0  0  0  0  0  0  0  0  0  0
   -1.4950   -1.5589   -1.2798 H   0  0  0  0  0  0  0  0  0  0  0  0
   -1.9789    1.9271    1.0557 H   0  0  0  0  0  0  0  0  0  0  0  0
   -2.2492    0.4147    1.9231 H   0  0  0  0  0  0  0  0  0  0  0  0
   -3.6113   -0.4836   -1.7601 H   0  0  0  0  0  0  0  0  0  0  0  0
   -3.9069   -2.0592   -1.0145 H   0  0  0  0  0  0  0  0  0  0  0  0
   -4.3815    1.4182    1.2955 H   0  0  0  0  0  0  0  0  0  0  0  0
   -3.8922    1.5700   -0.3968 H   0  0  0  0  0  0  0  0  0  0  0  0
   -5.8977    0.2245   -1.0409 H   0  0  0  0  0  0  0  0  0  0  0  0
   -6.3186    0.0863    0.6799 H   0  0  0  0  0  0  0  0  0  0  0  0
   -6.1198   -1.3685   -0.2855 H   0  0  0  0  0  0  0  0  0  0  0  0
   -0.3143    2.4620   -0.5173 H   0  0  0  0  0  0  0  0  0  0  0  0
    2.1111    2.8132   -0.5834 H   0  0  0  0  0  0  0  0  0  0  0  0
    2.4965   -2.5844    0.5184 H   0  0  0  0  0  0  0  0  0  0  0  0
    4.4286    1.8816   -0.3958 H   0  0  0  0  0  0  0  0  0  0  0  0
    4.9369   -2.2839    0.4515 H   0  0  0  0  0  0  0  0  0  0  0  0
    5.9106   -0.0492   -0.0059 H   0  0  0  0  0  0  0  0  0  0  0  0
  1  4  1  0  0  0  0
  1  5  1  0  0  0  0
  1  8  1  0  0  0  0
  2  6  1  0  0  0  0
  2  7  1  0  0  0  0
  2  9  1  0  0  0  0
  3  8  2  0  0  0  0
  3 11  1  0  0  0  0
  4  6  1  0  0  0  0
  4 18  1  0  0  0  0
  4 19  1  0  0  0  0
  5  7  1  0  0  0  0
  5 20  1  0  0  0  0
  5 21  1  0  0  0  0
  6 22  1  0  0  0  0
  6 23  1  0  0  0  0
  7 24  1  0  0  0  0
  7 25  1  0  0  0  0
  8 10  1  0  0  0  0
  9 26  1  0  0  0  0
  9 27  1  0  0  0  0
  9 28  1  0  0  0  0
 10 13  2  0  0  0  0
 10 29  1  0  0  0  0
 11 12  1  0  0  0  0
 11 14  2  0  0  0  0
 12 13  1  0  0  0  0
 12 15  2  0  0  0  0
 13 30  1  0  0  0  0
 14 16  1  0  0  0  0
 14 31  1  0  0  0  0
 15 17  1  0  0  0  0
 15 32  1  0  0  0  0
 16 17  2  0  0  0  0
 16 33  1  0  0  0  0
 17 34  1  0  0  0  0
M  END
> <PUBCHEM_COMPOUND_CID>
5013

> <PUBCHEM_CONFORMER_RMSD>
0.6

> <PUBCHEM_CONFORMER_DIVERSEORDER>
1
4
3
6
5
2

> <PUBCHEM_MMFF94_PARTIAL_CHARGES>
22
1 -0.84
10 -0.15
11 0.31
13 -0.15
14 -0.15
15 -0.15
16 -0.15
17 -0.15
2 -0.81
29 0.15
3 -0.62
30 0.15
31 0.15
32 0.15
33 0.15
34 0.15
4 0.37
5 0.37
6 0.27
7 0.27
8 0.41
9 0.27

> <PUBCHEM_EFFECTIVE_ROTOR_COUNT>
2.2

> <PUBCHEM_PHARMACOPHORE_FEATURES>
5
1 2 cation
3 1 3 8 cation
6 1 2 4 5 6 7 rings
6 11 12 14 15 16 17 rings
6 3 8 10 11 12 13 rings

> <PUBCHEM_HEAVY_ATOM_COUNT>
17

> <PUBCHEM_ATOM_DEF_STEREO_COUNT>
0

> <PUBCHEM_ATOM_UDEF_STEREO_COUNT>
0

> <PUBCHEM_BOND_DEF_STEREO_COUNT>
0

> <PUBCHEM_BOND_UDEF_STEREO_COUNT>
0

> <PUBCHEM_ISOTOPIC_ATOM_COUNT>
0

> <PUBCHEM_COMPONENT_COUNT>
1

> <PUBCHEM_CACTVS_TAUTO_COUNT>
1

> <PUBCHEM_CONFORMER_ID>
0000139500000001

> <PUBCHEM_MMFF94_ENERGY>
56.6692

> <PUBCHEM_FEATURE_SELFOVERLAP>
25.402

> <PUBCHEM_SHAPE_FINGERPRINT>
10062212 137 18201997755129306287
10616163 171 18272089460678652871
11471102 20 18260830414691919004
11806522 49 18409166619095267792
12107183 9 17693382135536003123
12236239 1 18343865524231504489
12251169 10 18343021090257796316
12670546 56 18202843262048422385
13167823 11 18413671313849751383
13533116 47 18201718435841355043
13690532 89 18410293605713193353
13760787 5 18040723562889029204
13862211 1 18261672576454224850
14251717 144 18335138700357638714
14252887 29 18272658909365394414
14576447 43 18340199807903773326
15196674 1 18409730625373435945
15242433 33 18410856581172940807
15375462 189 18335136462663775578
15442244 35 18411703140680713296
15536298 74 18342457062705544016
17357779 13 17603853512270703109
17834072 33 18413670231375431652
17862501 102 18272652341922438577
1813 80 18041571234682477718
18186145 218 17458337567950594947
18522853 276 18343302573940687537
200 152 18342454850908104329
20279233 1 16660365882794456099
20612939 158 18114187470790318100
20645477 70 18334011666474181750
21267235 1 18411708672598596990
221490 88 18117284863417015043
2255824 54 18335143145791208556
22646028 1 18343300370738320721
22646028 28 18411980264908177151
23402539 116 17775562031847355277
23402655 69 18409166593130480205
23557571 272 15625957421094900785
23559900 14 18130217271901301025
26918003 58 18186521020523749539
2871803 45 18040996211602490386
29717793 49 18202846534887160341
33824 294 18260546715080658202
34797466 226 16845299392607470344
3545911 37 18411702105603936539
4047638 21 11095881571244751652
42 15 18412546504880283297
4214541 1 18411700959264594785
465052 167 18411706495066190815
474 4 18117560845505477068
5104073 3 18412266133821055377
5374978 207 17703787033044348912
542803 24 13758075207666470003
573450 72 18059856151685959745
602551 16 16056587815717784158
77779 3 18411702088387072627
83771 10 18334574612222007796
9709674 26 18341620312444704879
9981440 41 17329986305431497320

> <PUBCHEM_SHAPE_MULTIPOLES>
334.91
10.77
1.65
0.76
5.95
0.15
-0.02
-2.49
-0.25
-0.87
0.07
0.28
0.02
-0.83

> <PUBCHEM_SHAPE_SELFOVERLAP>
720.502

> <PUBCHEM_SHAPE_VOLUME>
180.5

> <PUBCHEM_COORDINATE_TYPE>
2
5
10

$$$$
