5014
  -OEChem-07272517473D

 37 37  0     0  0  0  0  0  0999 V2000
   -1.0406    0.3580   -1.3081 O   0  0  0  0  0  0  0  0  0  0  0  0
   -3.4878   -0.0554    0.0259 N   0  3  0  0  0  0  0  0  0  0  0  0
    0.0966    0.2087    0.7427 N   0  0  0  0  0  0  0  0  0  0  0  0
   -2.2705    0.5059    0.7465 C   0  0  0  0  0  0  0  0  0  0  0  0
   -3.2739   -1.5361   -0.2535 C   0  0  0  0  0  0  0  0  0  0  0  0
   -4.7212    0.1229    0.8993 C   0  0  0  0  0  0  0  0  0  0  0  0
   -3.6856    0.6853   -1.2887 C   0  0  0  0  0  0  0  0  0  0  0  0
   -1.0151    0.3525   -0.0819 C   0  0  0  0  0  0  0  0  0  0  0  0
    1.4458    0.0413    0.3498 C   0  0  0  0  0  0  0  0  0  0  0  0
    1.9446   -1.2379    0.1541 C   0  0  0  0  0  0  0  0  0  0  0  0
    2.2462    1.1592    0.1673 C   0  0  0  0  0  0  0  0  0  0  0  0
    3.2746   -1.4029   -0.2332 C   0  0  0  0  0  0  0  0  0  0  0  0
    3.5759    0.9942   -0.2202 C   0  0  0  0  0  0  0  0  0  0  0  0
    1.0963   -2.4530    0.3463 C   0  0  0  0  0  0  0  0  0  0  0  0
    1.7247    2.5444    0.3742 C   0  0  0  0  0  0  0  0  0  0  0  0
    4.0901   -0.2869   -0.4205 C   0  0  0  0  0  0  0  0  0  0  0  0
   -2.4483    1.5693    0.9430 H   0  0  0  0  0  0  0  0  0  0  0  0
   -2.1848   -0.0281    1.7001 H   0  0  0  0  0  0  0  0  0  0  0  0
   -3.0905   -2.0444    0.6981 H   0  0  0  0  0  0  0  0  0  0  0  0
   -4.1843   -1.9275   -0.7183 H   0  0  0  0  0  0  0  0  0  0  0  0
   -2.4294   -1.6792   -0.9314 H   0  0  0  0  0  0  0  0  0  0  0  0
   -4.8718    1.1935    1.0673 H   0  0  0  0  0  0  0  0  0  0  0  0
   -5.5831   -0.3092    0.3821 H   0  0  0  0  0  0  0  0  0  0  0  0
   -4.5513   -0.3941    1.8484 H   0  0  0  0  0  0  0  0  0  0  0  0
   -3.4378    1.7422   -1.1530 H   0  0  0  0  0  0  0  0  0  0  0  0
   -3.1080    0.2220   -2.0911 H   0  0  0  0  0  0  0  0  0  0  0  0
   -4.7419    0.5989   -1.5667 H   0  0  0  0  0  0  0  0  0  0  0  0
   -0.0240    0.4113    1.7329 H   0  0  0  0  0  0  0  0  0  0  0  0
    3.6915   -2.3935   -0.3945 H   0  0  0  0  0  0  0  0  0  0  0  0
    4.2253    1.8524   -0.3713 H   0  0  0  0  0  0  0  0  0  0  0  0
    1.6773   -3.3762    0.2457 H   0  0  0  0  0  0  0  0  0  0  0  0
    0.6531   -2.4598    1.3477 H   0  0  0  0  0  0  0  0  0  0  0  0
    0.2980   -2.4829   -0.4025 H   0  0  0  0  0  0  0  0  0  0  0  0
    1.3146    2.6551    1.3836 H   0  0  0  0  0  0  0  0  0  0  0  0
    2.5123    3.2976    0.2624 H   0  0  0  0  0  0  0  0  0  0  0  0
    0.9455    2.7726   -0.3603 H   0  0  0  0  0  0  0  0  0  0  0  0
    5.1254   -0.4154   -0.7225 H   0  0  0  0  0  0  0  0  0  0  0  0
  1  8  2  0  0  0  0
  2  4  1  0  0  0  0
  2  5  1  0  0  0  0
  2  6  1  0  0  0  0
  2  7  1  0  0  0  0
  3  8  1  0  0  0  0
  3  9  1  0  0  0  0
  3 28  1  0  0  0  0
  4  8  1  0  0  0  0
  4 17  1  0  0  0  0
  4 18  1  0  0  0  0
  5 19  1  0  0  0  0
  5 20  1  0  0  0  0
  5 21  1  0  0  0  0
  6 22  1  0  0  0  0
  6 23  1  0  0  0  0
  6 24  1  0  0  0  0
  7 25  1  0  0  0  0
  7 26  1  0  0  0  0
  7 27  1  0  0  0  0
  9 10  2  0  0  0  0
  9 11  1  0  0  0  0
 10 12  1  0  0  0  0
 10 14  1  0  0  0  0
 11 13  2  0  0  0  0
 11 15  1  0  0  0  0
 12 16  2  0  0  0  0
 12 29  1  0  0  0  0
 13 16  1  0  0  0  0
 13 30  1  0  0  0  0
 14 31  1  0  0  0  0
 14 32  1  0  0  0  0
 14 33  1  0  0  0  0
 15 34  1  0  0  0  0
 15 35  1  0  0  0  0
 15 36  1  0  0  0  0
 16 37  1  0  0  0  0
M  CHG  1   2   1
M  END
> <PUBCHEM_COMPOUND_CID>
5014

> <PUBCHEM_CONFORMER_RMSD>
0.6

> <PUBCHEM_CONFORMER_DIVERSEORDER>
2
3
1

> <PUBCHEM_MMFF94_PARTIAL_CHARGES>
20
1 -0.57
10 -0.14
11 -0.14
12 -0.15
13 -0.15
14 0.14
15 0.14
16 -0.15
2 -1.01
28 0.37
29 0.15
3 -0.55
30 0.15
37 0.15
4 0.56
5 0.5
6 0.5
7 0.5
8 0.57
9 0.12

> <PUBCHEM_EFFECTIVE_ROTOR_COUNT>
4

> <PUBCHEM_PHARMACOPHORE_FEATURES>
4
1 1 acceptor
1 2 cation
1 3 donor
6 9 10 11 12 13 16 rings

> <PUBCHEM_HEAVY_ATOM_COUNT>
16

> <PUBCHEM_ATOM_DEF_STEREO_COUNT>
0

> <PUBCHEM_ATOM_UDEF_STEREO_COUNT>
0

> <PUBCHEM_BOND_DEF_STEREO_COUNT>
0

> <PUBCHEM_BOND_UDEF_STEREO_COUNT>
0

> <PUBCHEM_ISOTOPIC_ATOM_COUNT>
0

> <PUBCHEM_COMPONENT_COUNT>
1

> <PUBCHEM_CACTVS_TAUTO_COUNT>
2

> <PUBCHEM_CONFORMER_ID>
0000139600000002

> <PUBCHEM_MMFF94_ENERGY>
75.8238

> <PUBCHEM_FEATURE_SELFOVERLAP>
20.297

> <PUBCHEM_SHAPE_FINGERPRINT>
11471102 20 18410854356669823788
11615757 297 18343585144228906737
12236239 1 17632582634307341400
12500047 106 18260821580033816703
12553582 1 18341047402493337363
12932764 1 17967805046809037057
13296908 3 17821443548014320141
13760787 19 18201722868648134831
14251717 144 18410575084926959466
15219456 202 18187359905093749557
16752209 62 17059767807170140361
17834072 33 18272085037510541087
17834074 16 18408886239361721275
18186145 218 18412542128145058865
19422 9 17988925612795679367
200 152 18273491265184015601
20344682 1 17748831812848024934
20645477 56 17967809415287006805
20645477 70 18340201895484803951
21634736 98 18129092501818887462
21730867 7 18335416876619949126
221490 88 18338242681722994746
22289505 5 18262789662560753029
2255824 54 18341332275174158016
23402539 116 16805599253137719934
23402655 69 18410293588333046084
23557571 272 17095523972586849759
25 1 18408042905448202130
2748010 2 18051705635646503768
2838139 119 16516547632495390868
3060560 45 18410853265843134926
3323516 105 18409168826518690338
474 4 17772736411275754816
5104073 3 18340768229708775491
5281201 14 18040438767417341309
58051976 378 18412821399872196558
581208 293 18408882958085633578
77492 1 17704357653846387896
77779 3 18412548721310215945
8272917 22 18271535178279827679
93112 12 18410287004422396949

> <PUBCHEM_SHAPE_MULTIPOLES>
313.44
8.35
2.03
0.96
5.48
0.2
-0.16
0.12
-0.48
-1.48
0.2
0.72
-0.13
0.15

> <PUBCHEM_SHAPE_SELFOVERLAP>
633.389

> <PUBCHEM_SHAPE_VOLUME>
186.5

> <PUBCHEM_COORDINATE_TYPE>
2
5
10

$$$$
