5027
  -OEChem-07272517473D

 41 43  0     1  0  0  0  0  0999 V2000
   -1.0748    4.5836    0.7779 Cl  0  0  0  0  0  0  0  0  0  0  0  0
   -3.6097   -2.4521   -1.4558 S   0  0  0  0  0  0  0  0  0  0  0  0
    1.3522   -1.4271    0.9589 N   0  0  2  0  0  0  0  0  0  0  0  0
   -1.5412   -1.1427   -0.1873 N   0  0  0  0  0  0  0  0  0  0  0  0
   -3.1847    0.1512   -0.9408 N   0  0  0  0  0  0  0  0  0  0  0  0
    0.2569   -2.3976    1.0951 C   0  0  1  0  0  0  0  0  0  0  0  0
   -0.7925   -2.3722   -0.0264 C   0  0  0  0  0  0  0  0  0  0  0  0
    1.0319   -0.1101    1.5157 C   0  0  0  0  0  0  0  0  0  0  0  0
   -1.1886    0.1329    0.1816 C   0  0  0  0  0  0  0  0  0  0  0  0
   -0.0901    0.6726    0.8746 C   0  0  0  0  0  0  0  0  0  0  0  0
    1.9882   -1.3496   -0.3518 C   0  0  0  0  0  0  0  0  0  0  0  0
    0.8466   -3.8109    1.2153 C   0  0  0  0  0  0  0  0  0  0  0  0
   -2.2339    0.9189   -0.3134 C   0  0  0  0  0  0  0  0  0  0  0  0
   -2.7389   -1.0782   -0.8496 C   0  0  0  0  0  0  0  0  0  0  0  0
   -0.1105    2.0746    1.0499 C   0  0  0  0  0  0  0  0  0  0  0  0
   -2.2115    2.3110   -0.1313 C   0  0  0  0  0  0  0  0  0  0  0  0
    3.2766   -0.5830   -0.2906 C   0  0  0  0  0  0  0  0  0  0  0  0
   -1.1379    2.8767    0.5543 C   0  0  0  0  0  0  0  0  0  0  0  0
    3.6097    0.5448   -0.9476 C   0  0  0  0  0  0  0  0  0  0  0  0
    4.9243    1.2641   -0.8396 C   0  0  0  0  0  0  0  0  0  0  0  0
    2.6281    1.1929   -1.8890 C   0  0  0  0  0  0  0  0  0  0  0  0
   -0.2573   -2.2152    2.0495 H   0  0  0  0  0  0  0  0  0  0  0  0
   -0.3509   -2.6079   -1.0022 H   0  0  0  0  0  0  0  0  0  0  0  0
   -1.5166   -3.1631    0.2027 H   0  0  0  0  0  0  0  0  0  0  0  0
    1.9329    0.5137    1.5561 H   0  0  0  0  0  0  0  0  0  0  0  0
    0.7606   -0.2428    2.5727 H   0  0  0  0  0  0  0  0  0  0  0  0
    2.2638   -2.3570   -0.6865 H   0  0  0  0  0  0  0  0  0  0  0  0
    1.3048   -0.9727   -1.1142 H   0  0  0  0  0  0  0  0  0  0  0  0
    0.0621   -4.5310    1.4742 H   0  0  0  0  0  0  0  0  0  0  0  0
    1.3084   -4.1494    0.2822 H   0  0  0  0  0  0  0  0  0  0  0  0
    1.6027   -3.8545    2.0073 H   0  0  0  0  0  0  0  0  0  0  0  0
    0.7091    2.5430    1.5950 H   0  0  0  0  0  0  0  0  0  0  0  0
   -3.0189    2.9247   -0.5197 H   0  0  0  0  0  0  0  0  0  0  0  0
    4.0300   -1.0108    0.3711 H   0  0  0  0  0  0  0  0  0  0  0  0
   -4.6647   -1.7929   -1.9561 H   0  0  0  0  0  0  0  0  0  0  0  0
    5.6116    0.7447   -0.1638 H   0  0  0  0  0  0  0  0  0  0  0  0
    5.4053    1.3295   -1.8208 H   0  0  0  0  0  0  0  0  0  0  0  0
    4.7762    2.2771   -0.4522 H   0  0  0  0  0  0  0  0  0  0  0  0
    2.9144    0.9873   -2.9256 H   0  0  0  0  0  0  0  0  0  0  0  0
    1.5885    0.8940   -1.7538 H   0  0  0  0  0  0  0  0  0  0  0  0
    2.6417    2.2800   -1.7463 H   0  0  0  0  0  0  0  0  0  0  0  0
  1 18  1  0  0  0  0
  2 14  1  0  0  0  0
  2 35  1  0  0  0  0
  3  6  1  0  0  0  0
  3  8  1  0  0  0  0
  3 11  1  0  0  0  0
  4  7  1  0  0  0  0
  4  9  1  0  0  0  0
  4 14  1  0  0  0  0
  5 13  1  0  0  0  0
  5 14  2  0  0  0  0
  6  7  1  0  0  0  0
  6 12  1  0  0  0  0
  6 22  1  0  0  0  0
  7 23  1  0  0  0  0
  7 24  1  0  0  0  0
  8 10  1  0  0  0  0
  8 25  1  0  0  0  0
  8 26  1  0  0  0  0
  9 10  2  0  0  0  0
  9 13  1  0  0  0  0
 10 15  1  0  0  0  0
 11 17  1  0  0  0  0
 11 27  1  0  0  0  0
 11 28  1  0  0  0  0
 12 29  1  0  0  0  0
 12 30  1  0  0  0  0
 12 31  1  0  0  0  0
 13 16  2  0  0  0  0
 15 18  2  0  0  0  0
 15 32  1  0  0  0  0
 16 18  1  0  0  0  0
 16 33  1  0  0  0  0
 17 19  2  0  0  0  0
 17 34  1  0  0  0  0
 19 20  1  0  0  0  0
 19 21  1  0  0  0  0
 20 36  1  0  0  0  0
 20 37  1  0  0  0  0
 20 38  1  0  0  0  0
 21 39  1  0  0  0  0
 21 40  1  0  0  0  0
 21 41  1  0  0  0  0
M  END
> <PUBCHEM_COMPOUND_CID>
5027

> <PUBCHEM_CONFORMER_RMSD>
0.6

> <PUBCHEM_CONFORMER_DIVERSEORDER>
3
22
53
31
11
30
58
17
5
36
29
10
20
14
52
54
46
50
18
33
12
28
41
44
13
34
48
49
1
26
6
2
16
32
23
55
57
37
39
19
21
56
47
15
35
43
8
4
25
24
45
27
51
38
9
7
42
40

> <PUBCHEM_MMFF94_PARTIAL_CHARGES>
24
1 -0.18
10 -0.14
11 0.41
13 0.23
14 0.24
15 -0.15
16 -0.15
17 -0.29
18 0.18
19 -0.28
2 -0.24
20 0.14
21 0.14
3 -0.81
32 0.15
33 0.15
34 0.15
35 0.18
4 0.05
5 -0.57
6 0.27
7 0.26
8 0.41
9 -0.15

> <PUBCHEM_EFFECTIVE_ROTOR_COUNT>
2.8

> <PUBCHEM_PHARMACOPHORE_FEATURES>
6
1 3 cation
3 19 20 21 hydrophobe
3 4 5 14 cation
5 4 5 9 13 14 rings
6 9 10 13 15 16 18 rings
7 3 4 6 7 8 9 10 rings

> <PUBCHEM_HEAVY_ATOM_COUNT>
21

> <PUBCHEM_ATOM_DEF_STEREO_COUNT>
0

> <PUBCHEM_ATOM_UDEF_STEREO_COUNT>
1

> <PUBCHEM_BOND_DEF_STEREO_COUNT>
0

> <PUBCHEM_BOND_UDEF_STEREO_COUNT>
0

> <PUBCHEM_ISOTOPIC_ATOM_COUNT>
0

> <PUBCHEM_COMPONENT_COUNT>
1

> <PUBCHEM_CACTVS_TAUTO_COUNT>
2

> <PUBCHEM_CONFORMER_ID>
000013A300000003

> <PUBCHEM_MMFF94_ENERGY>
46.567

> <PUBCHEM_FEATURE_SELFOVERLAP>
30.591

> <PUBCHEM_SHAPE_FINGERPRINT>
11640471 11 18117853109360576364
12035758 1 17833553774740370898
121448 382 18411703197000338218
12293681 160 18336539520846713833
12553582 1 18341314661808871103
12788726 201 18410862092000986356
13009979 54 18190721069080029082
13140716 1 18268407145087247265
13149001 5 17832702748450636022
13583140 156 16452933948230298065
13965767 371 15961438961352012331
14790565 3 18127699223445923657
15420108 30 17617085916200235730
15475509 8 17917725595526590735
15848702 105 17969499484285070622
16945 1 18053920897798875235
17134986 127 17547863949148709676
17492 54 18189896611383797214
17980427 23 17405959896457609186
192875 21 18261395615435382076
19765921 60 17822005397960280875
20645476 183 17835523717530665265
20739085 24 15033171841876496489
20775438 99 16829786610294835838
20871999 31 18341047522926358759
22149856 69 16978427947531492569
22182313 1 17036688310642201731
22907989 373 17831056685645165892
2334 1 18124007256572159369
23419403 2 16683199720126211247
23557571 272 17845924122772193450
23558518 356 18266188236022610670
23559900 14 17485353484149091818
23598291 2 17758675542550971042
2748010 2 16895105314924295219
353137 74 18408609145188154178
394222 165 17386271143380941698
474 4 17969796172225594488
6992083 37 17112123045743205210
7832392 63 17688316685772695992
9981440 41 18335139826119281306

> <PUBCHEM_SHAPE_MULTIPOLES>
422.95
5.92
4.71
1.48
4.85
2.53
-0.14
-0.42
-4.19
-2.39
1.86
0.36
-0.33
-1.59

> <PUBCHEM_SHAPE_SELFOVERLAP>
881.489

> <PUBCHEM_SHAPE_VOLUME>
244.5

> <PUBCHEM_COORDINATE_TYPE>
2
5
10

$$$$
