5037
  -OEChem-07272517483D

 37 38  0     1  0  0  0  0  0999 V2000
   -0.2393    2.0791   -0.0996 O   0  0  0  0  0  0  0  0  0  0  0  0
    0.0642   -1.3742   -0.0565 N   0  0  1  0  0  0  0  0  0  0  0  0
    0.6735   -0.1148   -0.1610 N   0  0  0  0  0  0  0  0  0  0  0  0
   -2.7554    0.8227    0.4111 N   0  0  0  0  0  0  0  0  0  0  0  0
   -1.6044    0.1443    0.2218 C   0  0  0  0  0  0  0  0  0  0  0  0
   -1.2834   -1.1580    0.2226 C   0  0  0  0  0  0  0  0  0  0  0  0
   -4.0668    0.2888    0.1067 C   0  0  0  0  0  0  0  0  0  0  0  0
   -0.3232    0.8616   -0.0619 C   0  0  0  0  0  0  0  0  0  0  0  0
    2.0712    0.0880   -0.0418 C   0  0  0  0  0  0  0  0  0  0  0  0
   -2.2213   -2.2987    0.4362 C   0  0  0  0  0  0  0  0  0  0  0  0
    0.4785   -2.4259   -0.9800 C   0  0  0  0  0  0  0  0  0  0  0  0
   -4.3137    0.3885   -1.3928 C   0  0  0  0  0  0  0  0  0  0  0  0
   -5.1228    1.0530    0.8948 C   0  0  0  0  0  0  0  0  0  0  0  0
    2.6405    1.3081   -0.4197 C   0  0  0  0  0  0  0  0  0  0  0  0
    2.8911   -0.9300    0.4552 C   0  0  0  0  0  0  0  0  0  0  0  0
    4.0160    1.5081   -0.3021 C   0  0  0  0  0  0  0  0  0  0  0  0
    4.2665   -0.7299    0.5729 C   0  0  0  0  0  0  0  0  0  0  0  0
    4.8289    0.4893    0.1942 C   0  0  0  0  0  0  0  0  0  0  0  0
   -4.1717   -0.7526    0.4096 H   0  0  0  0  0  0  0  0  0  0  0  0
   -2.6687    1.8352    0.4326 H   0  0  0  0  0  0  0  0  0  0  0  0
   -2.8279   -2.4812   -0.4558 H   0  0  0  0  0  0  0  0  0  0  0  0
   -2.8660   -2.1290    1.3036 H   0  0  0  0  0  0  0  0  0  0  0  0
   -1.6735   -3.2214    0.6565 H   0  0  0  0  0  0  0  0  0  0  0  0
    0.3970   -3.4050   -0.4970 H   0  0  0  0  0  0  0  0  0  0  0  0
    1.5088   -2.3164   -1.3292 H   0  0  0  0  0  0  0  0  0  0  0  0
   -0.1592   -2.4265   -1.8718 H   0  0  0  0  0  0  0  0  0  0  0  0
   -5.3119    0.0175   -1.6484 H   0  0  0  0  0  0  0  0  0  0  0  0
   -4.2388    1.4247   -1.7419 H   0  0  0  0  0  0  0  0  0  0  0  0
   -3.5844   -0.2033   -1.9565 H   0  0  0  0  0  0  0  0  0  0  0  0
   -4.9396    0.9701    1.9719 H   0  0  0  0  0  0  0  0  0  0  0  0
   -6.1246    0.6605    0.6906 H   0  0  0  0  0  0  0  0  0  0  0  0
   -5.1181    2.1190    0.6407 H   0  0  0  0  0  0  0  0  0  0  0  0
    2.0473    2.1151   -0.8371 H   0  0  0  0  0  0  0  0  0  0  0  0
    2.4888   -1.8811    0.7918 H   0  0  0  0  0  0  0  0  0  0  0  0
    4.4553    2.4548   -0.6027 H   0  0  0  0  0  0  0  0  0  0  0  0
    4.8991   -1.5203    0.9661 H   0  0  0  0  0  0  0  0  0  0  0  0
    5.8998    0.6450    0.2860 H   0  0  0  0  0  0  0  0  0  0  0  0
  1  8  2  0  0  0  0
  2  3  1  0  0  0  0
  2  6  1  0  0  0  0
  2 11  1  0  0  0  0
  3  8  1  0  0  0  0
  3  9  1  0  0  0  0
  4  5  1  0  0  0  0
  4  7  1  0  0  0  0
  4 20  1  0  0  0  0
  5  6  2  0  0  0  0
  5  8  1  0  0  0  0
  6 10  1  0  0  0  0
  7 12  1  0  0  0  0
  7 13  1  0  0  0  0
  7 19  1  0  0  0  0
  9 14  2  0  0  0  0
  9 15  1  0  0  0  0
 10 21  1  0  0  0  0
 10 22  1  0  0  0  0
 10 23  1  0  0  0  0
 11 24  1  0  0  0  0
 11 25  1  0  0  0  0
 11 26  1  0  0  0  0
 12 27  1  0  0  0  0
 12 28  1  0  0  0  0
 12 29  1  0  0  0  0
 13 30  1  0  0  0  0
 13 31  1  0  0  0  0
 13 32  1  0  0  0  0
 14 16  1  0  0  0  0
 14 33  1  0  0  0  0
 15 17  2  0  0  0  0
 15 34  1  0  0  0  0
 16 18  2  0  0  0  0
 16 35  1  0  0  0  0
 17 18  1  0  0  0  0
 17 36  1  0  0  0  0
 18 37  1  0  0  0  0
M  END
> <PUBCHEM_COMPOUND_CID>
5037

> <PUBCHEM_CONFORMER_RMSD>
0.6

> <PUBCHEM_CONFORMER_DIVERSEORDER>
1
13
8
12
7
16
17
6
10
9
4
2
18
5
11
15
14
3

> <PUBCHEM_MMFF94_PARTIAL_CHARGES>
22
1 -0.57
10 0.14
11 0.37
14 -0.15
15 -0.15
16 -0.15
17 -0.15
18 -0.15
2 -0.49
20 0.4
3 -0.16
33 0.15
34 0.15
35 0.15
36 0.15
37 0.15
4 -0.87
5 0.11
6 -0.04
7 0.37
8 0.62
9 0.12

> <PUBCHEM_EFFECTIVE_ROTOR_COUNT>
3

> <PUBCHEM_PHARMACOPHORE_FEATURES>
6
1 1 acceptor
1 4 cation
1 4 donor
3 7 12 13 hydrophobe
5 2 3 5 6 8 rings
6 9 14 15 16 17 18 rings

> <PUBCHEM_HEAVY_ATOM_COUNT>
18

> <PUBCHEM_ATOM_DEF_STEREO_COUNT>
0

> <PUBCHEM_ATOM_UDEF_STEREO_COUNT>
0

> <PUBCHEM_BOND_DEF_STEREO_COUNT>
0

> <PUBCHEM_BOND_UDEF_STEREO_COUNT>
0

> <PUBCHEM_ISOTOPIC_ATOM_COUNT>
0

> <PUBCHEM_COMPONENT_COUNT>
1

> <PUBCHEM_CACTVS_TAUTO_COUNT>
1

> <PUBCHEM_CONFORMER_ID>
000013AD00000001

> <PUBCHEM_MMFF94_ENERGY>
64.4905

> <PUBCHEM_FEATURE_SELFOVERLAP>
30.446

> <PUBCHEM_SHAPE_FINGERPRINT>
10062212 137 18340199790987713055
10967382 1 18410293579990927282
11132069 177 18410855468818349266
11471102 20 18335416864051668788
12119455 92 18410288107843902694
12236239 1 17917709064060363237
12251169 10 18334576828446088674
12403814 3 17822007623254603965
12592029 89 18261675874398173906
13140716 1 18338519749809733945
13380535 76 18412265017103476047
13583140 156 16950277408447132009
13675066 3 17313106353918381401
13760787 19 18187651348979756370
13760787 5 18409445873626822429
15196674 1 18337111275910281874
16945 1 18337400322492563046
17349148 13 18341890770898184343
200 152 17561079219873164479
204376 136 18410015429356015467
20645477 70 18408604725799104078
21033648 29 17749373872070553789
21267235 1 18334583400067915418
21524375 3 18413106143266421234
22182313 1 18127999514320722439
23184049 59 18334018280465114429
23402539 116 18272645732210577477
23463225 33 18407761452004259182
23559900 14 18413109472694068746
2748010 2 18269014079352879863
335352 9 18410013213400745902
34797466 226 15626220260277234961
34934 24 18334571391197047880
350125 39 18193283116430690795
3545911 37 18407762547300040976
4072396 5 18337097973906040394
42630746 31 18272374118447104047
474 4 18341616975618489123
5104073 3 18262514918235203840
537710 114 18411703192362934064
58051976 100 18334296521674115404
633830 44 18202009798006484469
69090 78 18411132541448378150
9709674 26 18341618070693082118

> <PUBCHEM_SHAPE_MULTIPOLES>
349.62
9.68
2.09
0.89
1.28
0.89
-0.15
-3.47
0.91
0.08
-0.19
0.59
0.06
-0.33

> <PUBCHEM_SHAPE_SELFOVERLAP>
731.597

> <PUBCHEM_SHAPE_VOLUME>
200.4

> <PUBCHEM_COORDINATE_TYPE>
2
5
10

$$$$
